2al5_ligand
     RDKit          3D

 23 23  0  0  0  0  0  0  0  0999 V2000
    0.6016    0.2154    1.0128 N   0  0  0  0  0  0  0  0  0  0  0  0
    1.0537    1.4128    1.5985 C   0  0  0  0  0  0  0  0  0  0  0  0
    0.3160    2.3347    1.9539 O   0  0  0  0  0  0  0  0  0  0  0  0
    2.4452    1.4981    1.7547 N   0  0  0  0  0  0  0  0  0  0  0  0
    3.3852    0.5448    1.3898 C   0  0  0  0  0  0  0  0  0  0  0  0
    4.5963    0.6633    1.5402 O   0  0  0  0  0  0  0  0  0  0  0  0
    2.7989   -0.6613    0.7866 C   0  0  0  0  0  0  0  0  0  0  0  0
    3.6587   -1.6254    0.4112 F   0  0  0  0  0  0  0  0  0  0  0  0
    1.4824   -0.7767    0.6271 C   0  0  0  0  0  0  0  0  0  0  0  0
   -0.8348   -0.0029    0.7884 C   0  0  0  0  0  0  0  0  0  0  0  0
   -1.2671    0.2343   -0.6650 C   0  0  2  0  0  0  0  0  0  0  0  0
   -1.0155    1.6698   -1.0070 N   0  0  0  0  0  0  0  0  0  0  0  0
   -2.7199   -0.1759   -0.9620 C   0  0  0  0  0  0  0  0  0  0  0  0
   -3.0421   -0.0973   -2.1834 O   0  0  0  0  0  0  0  0  0  0  0  0
   -3.4179   -0.5382    0.0245 O   0  0  0  0  0  0  0  0  0  0  0  0
    2.8017    2.3519    2.1748 H   0  0  0  0  0  0  0  0  0  0  0  0
    1.0519   -1.6668    0.1819 H   0  0  0  0  0  0  0  0  0  0  0  0
   -1.4041    0.6509    1.4610 H   0  0  0  0  0  0  0  0  0  0  0  0
   -1.0656   -1.0318    1.0942 H   0  0  0  0  0  0  0  0  0  0  0  0
   -0.6215   -0.3371   -1.3429 H   0  0  0  0  0  0  0  0  0  0  0  0
   -0.0233    1.9166   -0.8962 H   0  0  0  0  0  0  0  0  0  0  0  0
   -1.5641    2.3027   -0.4096 H   0  0  0  0  0  0  0  0  0  0  0  0
   -1.2716    1.8682   -1.9834 H   0  0  0  0  0  0  0  0  0  0  0  0
  1  2  1  0
  1  9  1  0
  1 10  1  0
  2  3  2  0
  2  4  1  0
  4  5  1  0
  5  6  2  0
  5  7  1  0
  7  8  1  0
  7  9  2  0
 10 11  1  0
 11 12  1  0
 11 13  1  0
 13 14  1  0
 13 15  2  0
  4 16  1  0
  9 17  1  0
 10 18  1  0
 10 19  1  0
 11 20  1  6
 12 21  1  0
 12 22  1  0
 12 23  1  0
M  CHG  2  12   1  14  -1
M  END
>  <_TriposChargeType>  (1) 
MMFF94_CHARGES

>  <energy_abs>  (1) 
26.256817338296543

>  <SMILE>  (1) 
[H]C1=C(F)C(=O)N([H])C(=O)N1C([H])([H])[C@@]([H])(C(=O)[O-])[N+]([H])([H])[H]

>  <cluster_no>  (1) 
5

>  <pdb_id>  (1) 
2al5

>  <initial_id>  (1) 
48

$$$$
