3c2f_ligand
     RDKit          3D

 30 30  0  0  0  0  0  0  0  0999 V2000
   -0.7160   -0.3952    0.1926 C   0  0  1  0  0  0  0  0  0  0  0  0
   -0.4727   -0.1587   -1.2923 C   0  0  1  0  0  0  0  0  0  0  0  0
    0.8784    0.5209   -1.2467 C   0  0  1  0  0  0  0  0  0  0  0  0
    1.5965   -0.2993   -0.1844 C   0  0  1  0  0  0  0  0  0  0  0  0
    2.6932    0.4790    0.5285 C   0  0  0  0  0  0  0  0  0  0  0  0
   -1.6368   -1.4519    0.4154 O   0  0  0  0  0  0  0  0  0  0  0  0
   -0.3642   -1.4032   -1.9793 O   0  0  0  0  0  0  0  0  0  0  0  0
    1.5597    0.4971   -2.4830 O   0  0  0  0  0  0  0  0  0  0  0  0
    0.5787   -0.6834    0.7641 O   0  0  0  0  0  0  0  0  0  0  0  0
    3.4029   -0.4158    1.3827 O   0  0  0  0  0  0  0  0  0  0  0  0
    4.7036    0.1542    2.2267 P   0  0  0  0  0  0  0  0  0  0  0  0
    5.6895    0.6117    1.1557 O   0  0  0  0  0  0  0  0  0  0  0  0
    5.1736   -1.0596    3.0228 O   0  0  0  0  0  0  0  0  0  0  0  0
    4.1429    1.2817    3.0885 O   0  0  0  0  0  0  0  0  0  0  0  0
   -3.2265   -1.1354    0.6278 P   0  0  1  0  0  0  0  0  0  0  0  0
   -3.9490   -2.4564    0.7805 O   0  0  0  0  0  0  0  0  0  0  0  0
   -3.3883   -0.0454    1.6651 O   0  0  0  0  0  0  0  0  0  0  0  0
   -3.5750   -0.5235   -0.8455 O   0  0  0  0  0  0  0  0  0  0  0  0
   -4.9894    0.0601   -1.4559 P   0  0  0  0  0  0  0  0  0  0  0  0
   -4.6300    0.4638   -2.8822 O   0  0  0  0  0  0  0  0  0  0  0  0
   -5.9539   -1.1177   -1.3638 O   0  0  0  0  0  0  0  0  0  0  0  0
   -5.3379    1.2317   -0.5440 O   0  0  0  0  0  0  0  0  0  0  0  0
   -1.0663    0.5234    0.6767 H   0  0  0  0  0  0  0  0  0  0  0  0
   -1.2461    0.4356   -1.7854 H   0  0  0  0  0  0  0  0  0  0  0  0
    0.7646    1.5628   -0.9220 H   0  0  0  0  0  0  0  0  0  0  0  0
    2.0168   -1.2226   -0.6031 H   0  0  0  0  0  0  0  0  0  0  0  0
    3.3935    0.9091   -0.1939 H   0  0  0  0  0  0  0  0  0  0  0  0
    2.2668    1.2775    1.1443 H   0  0  0  0  0  0  0  0  0  0  0  0
   -1.2132   -1.8652   -1.8705 H   0  0  0  0  0  0  0  0  0  0  0  0
    0.9863    0.9280   -3.1395 H   0  0  0  0  0  0  0  0  0  0  0  0
  1  2  1  0
  1  6  1  0
  1  9  1  0
  2  3  1  0
  2  7  1  0
  3  4  1  0
  3  8  1  0
  4  5  1  0
  4  9  1  0
  5 10  1  0
  6 15  1  0
 10 11  1  0
 11 12  2  0
 11 13  1  0
 11 14  1  0
 15 16  2  0
 15 17  1  1
 15 18  1  0
 18 19  1  0
 19 20  2  0
 19 21  1  0
 19 22  1  0
  1 23  1  1
  2 24  1  6
  3 25  1  1
  4 26  1  6
  5 27  1  0
  5 28  1  0
  7 29  1  0
  8 30  1  0
M  CHG  5  13  -1  14  -1  17  -1  21  -1  22  -1
M  END
>  <_TriposChargeType>  (1) 
GAST_HUCK

>  <energy_abs>  (1) 
52.71542757233268

>  <SMILE>  (1) 
[H]O[C@]1([H])[C@@]([H])(C([H])([H])OP(=O)([O-])[O-])O[C@]([H])(O[P@@](=O)([O-])OP(=O)([O-])[O-])[C@]1([H])O[H]

>  <cluster_no>  (1) 
629

>  <pdb_id>  (1) 
3c2f

>  <initial_id>  (1) 
270

$$$$
