3c2f_ligand
     RDKit          3D

 30 30  0  0  0  0  0  0  0  0999 V2000
   26.9563  -14.4086   44.8885 C   0  0  1  0  0  0  0  0  0  0  0  0
   26.8066  -15.8835   44.5402 C   0  0  1  0  0  0  0  0  0  0  0  0
   27.3731  -15.8960   43.1363 C   0  0  1  0  0  0  0  0  0  0  0  0
   28.5609  -14.9505   43.2641 C   0  0  1  0  0  0  0  0  0  0  0  0
   28.8966  -14.2433   41.9583 C   0  0  0  0  0  0  0  0  0  0  0  0
   26.9735  -14.1979   46.2907 O   0  0  0  0  0  0  0  0  0  0  0  0
   27.5954  -16.6939   45.4090 O   0  0  0  0  0  0  0  0  0  0  0  0
   27.7456  -17.1846   42.6949 O   0  0  0  0  0  0  0  0  0  0  0  0
   28.1821  -13.9766   44.2604 O   0  0  0  0  0  0  0  0  0  0  0  0
   30.1099  -13.5148   42.1343 O   0  0  0  0  0  0  0  0  0  0  0  0
   30.7774  -12.7559   40.8274 P   0  0  0  0  0  0  0  0  0  0  0  0
   29.6986  -11.7897   40.3470 O   0  0  0  0  0  0  0  0  0  0  0  0
   32.0125  -12.0701   41.4036 O   0  0  0  0  0  0  0  0  0  0  0  0
   31.0951  -13.8816   39.8474 O   0  0  0  0  0  0  0  0  0  0  0  0
   25.5587  -13.9605   47.0731 P   0  0  1  0  0  0  0  0  0  0  0  0
   24.9669  -12.6385   46.6352 O   0  0  0  0  0  0  0  0  0  0  0  0
   24.7419  -15.2332   47.0132 O   0  0  0  0  0  0  0  0  0  0  0  0
   26.1345  -13.8013   48.5936 O   0  0  0  0  0  0  0  0  0  0  0  0
   27.1157  -12.6668   49.2765 P   0  0  0  0  0  0  0  0  0  0  0  0
   26.3521  -11.3572   49.1102 O   0  0  0  0  0  0  0  0  0  0  0  0
   28.4096  -12.7472   48.4735 O   0  0  0  0  0  0  0  0  0  0  0  0
   27.2512  -13.1295   50.7239 O   0  0  0  0  0  0  0  0  0  0  0  0
   26.1525  -13.8185   44.4325 H   0  0  0  0  0  0  0  0  0  0  0  0
   25.7772  -16.2455   44.5981 H   0  0  0  0  0  0  0  0  0  0  0  0
   26.6311  -15.4909   42.4373 H   0  0  0  0  0  0  0  0  0  0  0  0
   29.4538  -15.4672   43.6371 H   0  0  0  0  0  0  0  0  0  0  0  0
   28.1081  -13.5350   41.6844 H   0  0  0  0  0  0  0  0  0  0  0  0
   29.0322  -14.9693   41.1509 H   0  0  0  0  0  0  0  0  0  0  0  0
   28.4493  -16.2525   45.5532 H   0  0  0  0  0  0  0  0  0  0  0  0
   28.3607  -17.5580   43.3489 H   0  0  0  0  0  0  0  0  0  0  0  0
  1  2  1  0
  1  6  1  0
  1  9  1  0
  2  3  1  0
  2  7  1  0
  3  4  1  0
  3  8  1  0
  4  5  1  0
  4  9  1  0
  5 10  1  0
  6 15  1  0
 10 11  1  0
 11 12  2  0
 11 13  1  0
 11 14  1  0
 15 16  2  0
 15 17  1  1
 15 18  1  0
 18 19  1  0
 19 20  2  0
 19 21  1  0
 19 22  1  0
  1 23  1  6
  2 24  1  6
  3 25  1  6
  4 26  1  1
  5 27  1  0
  5 28  1  0
  7 29  1  0
  8 30  1  0
M  CHG  5  13  -1  14  -1  17  -1  21  -1  22  -1
M  END
>  <_TriposChargeType>  (1) 
GAST_HUCK

>  <energy_abs>  (1) 
55.168883664457695

>  <SMILE>  (1) 
[H]O[C@]1([H])[C@@]([H])(C([H])([H])OP(=O)([O-])[O-])O[C@]([H])(O[P@@](=O)([O-])OP(=O)([O-])[O-])[C@]1([H])O[H]

$$$$
