pose_02/01.pdb
     RDKit          3D

 71 75  0  0  1  0  0  0  0  0999 V2000
    3.8054   -1.8583    1.8799 C   0  0  0  0  0  0  0  0  0  0  0  0
    3.9410   -3.0500    2.6179 C   0  0  0  0  0  0  0  0  0  0  0  0
    5.1912   -3.6361    2.8228 C   0  0  0  0  0  0  0  0  0  0  0  0
    6.3321   -3.0436    2.2924 C   0  0  0  0  0  0  0  0  0  0  0  0
    6.2246   -1.8660    1.5550 C   0  0  0  0  0  0  0  0  0  0  0  0
    4.9723   -1.2715    1.3447 C   0  0  0  0  0  0  0  0  0  0  0  0
    4.9222   -0.0696    0.5619 C   0  0  0  0  0  0  0  0  0  0  0  0
    4.8865    0.9036   -0.0693 N   0  0  0  0  0  0  0  0  0  0  0  0
    3.0647   -3.5324    3.0474 H   0  0  0  0  0  0  0  0  0  0  0  0
    5.2721   -4.5543    3.3972 H   0  0  0  0  0  0  0  0  0  0  0  0
    7.3054   -3.4987    2.4509 H   0  0  0  0  0  0  0  0  0  0  0  0
    7.1273   -1.4190    1.1439 H   0  0  0  0  0  0  0  0  0  0  0  0
    2.4635   -1.2788    1.6954 C   0  0  0  0  0  0  0  0  0  0  0  0
    2.1140   -0.0616    2.3053 C   0  0  0  0  0  0  0  0  0  0  0  0
    0.8416    0.4961    2.1301 C   0  0  0  0  0  0  0  0  0  0  0  0
    2.8443    0.4621    2.9201 H   0  0  0  0  0  0  0  0  0  0  0  0
   -0.1069   -0.1924    1.3623 C   0  0  0  0  0  0  0  0  0  0  0  0
    0.4914    1.8185    2.7613 C   0  0  0  0  0  0  0  0  0  0  0  0
    0.2292   -1.3879    0.7219 C   0  0  0  0  0  0  0  0  0  0  0  0
   -1.1046    0.2285    1.2691 H   0  0  0  0  0  0  0  0  0  0  0  0
   -0.7235   -2.0873   -0.1804 C   0  0  0  0  0  0  0  0  0  0  0  0
    1.5062   -1.9336    0.9012 C   0  0  0  0  0  0  0  0  0  0  0  0
   -1.6393   -1.2693   -0.8240 N   0  0  0  0  0  0  0  0  0  0  0  0
   -0.6276   -3.3005   -0.3411 O   0  0  0  0  0  0  0  0  0  0  0  0
   -2.5876   -1.7494   -1.8262 C   0  0  2  0  0  0  0  0  0  0  0  0
   -1.6641   -0.2760   -0.6213 H   0  0  0  0  0  0  0  0  0  0  0  0
   -2.9167   -0.6458   -2.8571 C   0  0  0  0  0  0  0  0  0  0  0  0
   -2.1062   -2.5839   -2.3522 H   0  0  0  0  0  0  0  0  0  0  0  0
   -1.7560   -0.3006   -3.8069 C   0  0  0  0  0  0  0  0  0  0  0  0
   -3.7526   -0.9893   -3.4816 H   0  0  0  0  0  0  0  0  0  0  0  0
   -3.2648    0.2631   -2.3495 H   0  0  0  0  0  0  0  0  0  0  0  0
   -0.5957    0.4135   -3.1603 C   0  0  0  0  0  0  0  0  0  0  0  0
   -2.1386    0.3448   -4.6086 H   0  0  0  0  0  0  0  0  0  0  0  0
   -1.4117   -1.2141   -4.3071 H   0  0  0  0  0  0  0  0  0  0  0  0
    0.6382   -0.2226   -2.9935 C   0  0  0  0  0  0  0  0  0  0  0  0
   -0.7339    1.7316   -2.6979 C   0  0  0  0  0  0  0  0  0  0  0  0
    1.7067    0.4197   -2.3764 C   0  0  0  0  0  0  0  0  0  0  0  0
    0.8046   -1.4845   -3.4172 F   0  0  0  0  0  0  0  0  0  0  0  0
    1.5524    1.7254   -1.9154 C   0  0  0  0  0  0  0  0  0  0  0  0
    2.6549   -0.0943   -2.2533 H   0  0  0  0  0  0  0  0  0  0  0  0
    0.3315    2.3967   -2.0680 C   0  0  0  0  0  0  0  0  0  0  0  0
    2.3969    2.2196   -1.4429 H   0  0  0  0  0  0  0  0  0  0  0  0
    0.1740    3.8222   -1.5794 C   0  0  0  0  0  0  0  0  0  0  0  0
   -0.3925    4.0089   -0.1485 C   0  0  1  0  0  0  0  0  0  0  0  0
    1.1551    4.3134   -1.6495 H   0  0  0  0  0  0  0  0  0  0  0  0
   -0.4579    4.3614   -2.3000 H   0  0  0  0  0  0  0  0  0  0  0  0
    0.4993    3.3376    0.9004 C   0  0  0  0  0  0  0  0  0  0  0  0
   -0.2284    2.6415    1.8211 O   0  0  0  0  0  0  0  0  0  0  0  0
    1.7218    3.4388    0.9045 O   0  0  0  0  0  0  0  0  0  0  0  0
   -1.6838    2.2459   -2.8294 H   0  0  0  0  0  0  0  0  0  0  0  0
    1.7753   -2.8638    0.4035 H   0  0  0  0  0  0  0  0  0  0  0  0
    1.3768    2.3523    3.1258 H   0  0  0  0  0  0  0  0  0  0  0  0
   -0.1655    1.6463    3.6206 H   0  0  0  0  0  0  0  0  0  0  0  0
   -3.8477   -2.2611   -1.1506 C   0  0  0  0  0  0  0  0  0  0  0  0
   -4.2534   -3.5918   -1.3404 C   0  0  0  0  0  0  0  0  0  0  0  0
   -5.4073   -4.0772   -0.7247 C   0  0  0  0  0  0  0  0  0  0  0  0
   -3.6716   -4.2605   -1.9699 H   0  0  0  0  0  0  0  0  0  0  0  0
   -6.1592   -3.2317    0.0833 C   0  0  0  0  0  0  0  0  0  0  0  0
   -5.7150   -5.1072   -0.8755 H   0  0  0  0  0  0  0  0  0  0  0  0
   -7.2678   -3.6979    0.6751 F   0  0  0  0  0  0  0  0  0  0  0  0
   -5.7786   -1.9102    0.2868 C   0  0  0  0  0  0  0  0  0  0  0  0
   -4.6247   -1.4261   -0.3294 C   0  0  0  0  0  0  0  0  0  0  0  0
   -6.3737   -1.2601    0.9204 H   0  0  0  0  0  0  0  0  0  0  0  0
   -4.3337   -0.3919   -0.1627 H   0  0  0  0  0  0  0  0  0  0  0  0
   -0.4543    5.5046    0.1913 C   0  0  0  0  0  0  0  0  0  0  0  0
   -0.8320    5.6709    1.2076 H   0  0  0  0  0  0  0  0  0  0  0  0
   -1.1045    6.0485   -0.5037 H   0  0  0  0  0  0  0  0  0  0  0  0
    0.5413    5.9612    0.1424 H   0  0  0  0  0  0  0  0  0  0  0  0
   -1.7591    3.4764   -0.0708 N   0  0  0  0  0  0  0  0  0  0  0  0
   -1.7463    2.4642   -0.1883 H   0  0  0  0  0  0  0  0  0  0  0  0
   -2.1472    3.6498    0.8558 H   0  0  0  0  0  0  0  0  0  0  0  0
  1 13  1  0
  1  2  2  0
  1  6  1  0
  2  9  1  0
  2  3  1  0
  3 10  1  0
  3  4  2  0
  4  5  1  0
  4 11  1  0
  5  6  2  0
  5 12  1  0
  6  7  1  0
  7  8  3  0
 13 22  1  0
 13 14  2  0
 14 15  1  0
 14 16  1  0
 15 17  2  0
 15 18  1  0
 17 20  1  0
 17 19  1  0
 18 52  1  0
 18 48  1  0
 18 53  1  0
 19 21  1  0
 19 22  2  0
 21 23  1  0
 21 24  2  0
 22 51  1  0
 23 25  1  0
 23 26  1  0
 25 27  1  0
 25 54  1  0
 25 28  1  6
 27 31  1  0
 27 30  1  0
 27 29  1  0
 29 34  1  0
 29 32  1  0
 29 33  1  0
 32 35  2  0
 32 36  1  0
 35 38  1  0
 35 37  1  0
 36 41  2  0
 36 50  1  0
 37 40  1  0
 37 39  2  0
 39 42  1  0
 39 41  1  0
 41 43  1  0
 43 45  1  0
 43 46  1  0
 43 44  1  0
 44 47  1  0
 44 69  1  6
 44 65  1  0
 47 49  2  0
 47 48  1  0
 54 62  1  0
 54 55  2  0
 55 56  1  0
 55 57  1  0
 56 58  2  0
 56 59  1  0
 58 60  1  0
 58 61  1  0
 61 63  1  0
 61 62  2  0
 62 64  1  0
 65 66  1  0
 65 68  1  0
 65 67  1  0
 69 70  1  0
 69 71  1  0
M  END
>  <MODEL>  (1) 
       2

>  <REMARK>  (1) 
 minimizedAffinity -11.2809019

>  <COMPND>  (1) 
    UNNAMED

>  <AUTHOR>  (1) 
    GENERATED BY OPEN BABEL 2.3.90

>  <MASTER>  (1) 
        0    0    0    0    0    0    0    0   71    0   71    0

>  <energy_abs>  (1) 
110.83559503336971

>  <SMILE>  (1) 
[H]c1c([H])c([H])c(-c2c([H])c3c([H])c(c2[H])C([H])([H])OC(=O)[C@@](N([H])[H])(C([H])([H])[H])C([H])([H])c2c([H])c([H])c(F)c(c2[H])C([H])([H])C([H])([H])[C@]([H])(c2c([H])c([H])c(F)c([H])c2[H])N([H])C3=O)c(C#N)c1[H]

>  <cluster_no>  (1) 
130

>  <pdb_id>  (1) 
01

>  <initial_id>  (1) 
917

$$$$
