2al5_ligand
     RDKit          3D

 23 23  0  0  0  0  0  0  0  0999 V2000
    0.6674   -0.3424    0.1458 N   0  0  0  0  0  0  0  0  0  0  0  0
    1.3659    0.6576   -0.5564 C   0  0  0  0  0  0  0  0  0  0  0  0
    0.9693    1.1818   -1.5995 O   0  0  0  0  0  0  0  0  0  0  0  0
    2.5857    1.0358    0.0242 N   0  0  0  0  0  0  0  0  0  0  0  0
    3.1443    0.5351    1.1916 C   0  0  0  0  0  0  0  0  0  0  0  0
    4.2156    0.8970    1.6658 O   0  0  0  0  0  0  0  0  0  0  0  0
    2.3252   -0.4987    1.8414 C   0  0  0  0  0  0  0  0  0  0  0  0
    2.8106   -1.0233    2.9812 F   0  0  0  0  0  0  0  0  0  0  0  0
    1.1639   -0.8830    1.3162 C   0  0  0  0  0  0  0  0  0  0  0  0
   -0.6355   -0.8175   -0.3428 C   0  0  0  0  0  0  0  0  0  0  0  0
   -1.8121   -0.1758    0.4007 C   0  0  2  0  0  0  0  0  0  0  0  0
   -3.0528   -0.9143    0.0081 N   0  0  0  0  0  0  0  0  0  0  0  0
   -1.8973    1.3248    0.0942 C   0  0  0  0  0  0  0  0  0  0  0  0
   -2.2887    1.6230   -1.0693 O   0  0  0  0  0  0  0  0  0  0  0  0
   -1.5669    2.0801    1.0519 O   0  0  0  0  0  0  0  0  0  0  0  0
    3.1135    1.7558   -0.4611 H   0  0  0  0  0  0  0  0  0  0  0  0
    0.5601   -1.6438    1.7983 H   0  0  0  0  0  0  0  0  0  0  0  0
   -0.6545   -1.9100   -0.2340 H   0  0  0  0  0  0  0  0  0  0  0  0
   -0.7052   -0.6124   -1.4182 H   0  0  0  0  0  0  0  0  0  0  0  0
   -1.7201   -0.3290    1.4820 H   0  0  0  0  0  0  0  0  0  0  0  0
   -3.2295   -0.8455   -1.0032 H   0  0  0  0  0  0  0  0  0  0  0  0
   -2.9920   -1.9130    0.2476 H   0  0  0  0  0  0  0  0  0  0  0  0
   -3.8777   -0.5338    0.4908 H   0  0  0  0  0  0  0  0  0  0  0  0
  1  2  1  0
  1  9  1  0
  1 10  1  0
  2  3  2  0
  2  4  1  0
  4  5  1  0
  5  6  2  0
  5  7  1  0
  7  8  1  0
  7  9  2  0
 10 11  1  0
 11 12  1  0
 11 13  1  0
 13 14  1  0
 13 15  2  0
  4 16  1  0
  9 17  1  0
 10 18  1  0
 10 19  1  0
 11 20  1  1
 12 21  1  0
 12 22  1  0
 12 23  1  0
M  CHG  2  12   1  14  -1
M  END
>  <_TriposChargeType>  (1) 
MMFF94_CHARGES

>  <energy_abs>  (1) 
26.522811910671127

>  <SMILE>  (1) 
[H]C1=C(F)C(=O)N([H])C(=O)N1C([H])([H])[C@@]([H])(C(=O)[O-])[N+]([H])([H])[H]

>  <cluster_no>  (1) 
1

>  <pdb_id>  (1) 
2al5

>  <initial_id>  (1) 
43

$$$$
2al5_ligand
     RDKit          3D

 23 23  0  0  0  0  0  0  0  0999 V2000
    0.7198   -0.2822    0.0670 N   0  0  0  0  0  0  0  0  0  0  0  0
    1.4068    0.8362   -0.4411 C   0  0  0  0  0  0  0  0  0  0  0  0
    1.0463    1.4869   -1.4244 O   0  0  0  0  0  0  0  0  0  0  0  0
    2.5694    1.1785    0.2655 N   0  0  0  0  0  0  0  0  0  0  0  0
    3.0828    0.5402    1.3856 C   0  0  0  0  0  0  0  0  0  0  0  0
    4.1045    0.8753    1.9750 O   0  0  0  0  0  0  0  0  0  0  0  0
    2.2804   -0.6092    1.8292 C   0  0  0  0  0  0  0  0  0  0  0  0
    2.7238   -1.2703    2.9139 F   0  0  0  0  0  0  0  0  0  0  0  0
    1.1731   -0.9630    1.1805 C   0  0  0  0  0  0  0  0  0  0  0  0
   -0.5261   -0.7370   -0.5676 C   0  0  0  0  0  0  0  0  0  0  0  0
   -1.7757   -0.2579    0.1796 C   0  0  2  0  0  0  0  0  0  0  0  0
   -2.9519   -0.9843   -0.3931 N   0  0  0  0  0  0  0  0  0  0  0  0
   -1.9188    1.2661    0.0810 C   0  0  0  0  0  0  0  0  0  0  0  0
   -1.6842    1.8902    1.1545 O   0  0  0  0  0  0  0  0  0  0  0  0
   -2.2556    1.7107   -1.0524 O   0  0  0  0  0  0  0  0  0  0  0  0
    3.0876    1.9819   -0.0787 H   0  0  0  0  0  0  0  0  0  0  0  0
    0.5815   -1.8095    1.5107 H   0  0  0  0  0  0  0  0  0  0  0  0
   -0.4960   -1.8337   -0.6141 H   0  0  0  0  0  0  0  0  0  0  0  0
   -0.5426   -0.3836   -1.6060 H   0  0  0  0  0  0  0  0  0  0  0  0
   -1.7400   -0.5599    1.2325 H   0  0  0  0  0  0  0  0  0  0  0  0
   -2.8546   -2.0034   -0.2922 H   0  0  0  0  0  0  0  0  0  0  0  0
   -3.8221   -0.7115    0.0829 H   0  0  0  0  0  0  0  0  0  0  0  0
   -3.0718   -0.7792   -1.3942 H   0  0  0  0  0  0  0  0  0  0  0  0
  1  2  1  0
  1  9  1  0
  1 10  1  0
  2  3  2  0
  2  4  1  0
  4  5  1  0
  5  6  2  0
  5  7  1  0
  7  8  1  0
  7  9  2  0
 10 11  1  0
 11 12  1  0
 11 13  1  0
 13 14  1  0
 13 15  2  0
  4 16  1  0
  9 17  1  0
 10 18  1  0
 10 19  1  0
 11 20  1  1
 12 21  1  0
 12 22  1  0
 12 23  1  0
M  CHG  2  12   1  14  -1
M  END
>  <_TriposChargeType>  (2) 
MMFF94_CHARGES

>  <energy_abs>  (2) 
26.522811880848735

>  <SMILE>  (2) 
[H]C1=C(F)C(=O)N([H])C(=O)N1C([H])([H])[C@@]([H])(C(=O)[O-])[N+]([H])([H])[H]

>  <cluster_no>  (2) 
2

>  <pdb_id>  (2) 
2al5

>  <initial_id>  (2) 
50

$$$$
2al5_ligand
     RDKit          3D

 23 23  0  0  0  0  0  0  0  0999 V2000
    0.8531   -0.0278    0.2131 N   0  0  0  0  0  0  0  0  0  0  0  0
    1.6950    1.0089   -0.2320 C   0  0  0  0  0  0  0  0  0  0  0  0
    1.4048    1.7978   -1.1342 O   0  0  0  0  0  0  0  0  0  0  0  0
    2.9251    1.0912    0.4366 N   0  0  0  0  0  0  0  0  0  0  0  0
    3.3730    0.2695    1.4612 C   0  0  0  0  0  0  0  0  0  0  0  0
    4.4591    0.3769    2.0200 O   0  0  0  0  0  0  0  0  0  0  0  0
    2.4127   -0.7777    1.8405 C   0  0  0  0  0  0  0  0  0  0  0  0
    2.7880   -1.6084    2.8300 F   0  0  0  0  0  0  0  0  0  0  0  0
    1.2360   -0.8839    1.2271 C   0  0  0  0  0  0  0  0  0  0  0  0
   -0.4639   -0.2118   -0.4109 C   0  0  0  0  0  0  0  0  0  0  0  0
   -1.5160    0.7902    0.0837 C   0  0  2  0  0  0  0  0  0  0  0  0
   -1.7613    0.5428    1.5394 N   0  0  0  0  0  0  0  0  0  0  0  0
   -2.8262    0.7693   -0.7228 C   0  0  0  0  0  0  0  0  0  0  0  0
   -2.9548   -0.1586   -1.5680 O   0  0  0  0  0  0  0  0  0  0  0  0
   -3.6303    1.7019   -0.4307 O   0  0  0  0  0  0  0  0  0  0  0  0
    3.5543    1.8309    0.1374 H   0  0  0  0  0  0  0  0  0  0  0  0
    0.5304   -1.6562    1.5118 H   0  0  0  0  0  0  0  0  0  0  0  0
   -0.8019   -1.2458   -0.2631 H   0  0  0  0  0  0  0  0  0  0  0  0
   -0.3247   -0.0842   -1.4923 H   0  0  0  0  0  0  0  0  0  0  0  0
   -1.1142    1.8092    0.0322 H   0  0  0  0  0  0  0  0  0  0  0  0
   -2.4563    1.2023    1.9143 H   0  0  0  0  0  0  0  0  0  0  0  0
   -2.1167   -0.4078    1.7073 H   0  0  0  0  0  0  0  0  0  0  0  0
   -0.9029    0.6595    2.0934 H   0  0  0  0  0  0  0  0  0  0  0  0
  1  2  1  0
  1  9  1  0
  1 10  1  0
  2  3  2  0
  2  4  1  0
  4  5  1  0
  5  6  2  0
  5  7  1  0
  7  8  1  0
  7  9  2  0
 10 11  1  0
 11 12  1  0
 11 13  1  0
 13 14  1  0
 13 15  2  0
  4 16  1  0
  9 17  1  0
 10 18  1  0
 10 19  1  0
 11 20  1  1
 12 21  1  0
 12 22  1  0
 12 23  1  0
M  CHG  2  12   1  14  -1
M  END
>  <_TriposChargeType>  (3) 
MMFF94_CHARGES

>  <energy_abs>  (3) 
26.352732013588803

>  <SMILE>  (3) 
[H]C1=C(F)C(=O)N([H])C(=O)N1C([H])([H])[C@@]([H])(C(=O)[O-])[N+]([H])([H])[H]

>  <cluster_no>  (3) 
3

>  <pdb_id>  (3) 
2al5

>  <initial_id>  (3) 
51

$$$$
2al5_ligand
     RDKit          3D

 23 23  0  0  0  0  0  0  0  0999 V2000
    0.8494    0.0567    0.1858 N   0  0  0  0  0  0  0  0  0  0  0  0
    1.6864    1.1720   -0.0069 C   0  0  0  0  0  0  0  0  0  0  0  0
    1.4130    2.1243   -0.7410 O   0  0  0  0  0  0  0  0  0  0  0  0
    2.8897    1.1312    0.7123 N   0  0  0  0  0  0  0  0  0  0  0  0
    3.3141    0.1258    1.5694 C   0  0  0  0  0  0  0  0  0  0  0  0
    4.3765    0.1308    2.1816 O   0  0  0  0  0  0  0  0  0  0  0  0
    2.3597   -0.9861    1.6936 C   0  0  0  0  0  0  0  0  0  0  0  0
    2.7126   -1.9934    2.5126 F   0  0  0  0  0  0  0  0  0  0  0  0
    1.2089   -0.9800    1.0242 C   0  0  0  0  0  0  0  0  0  0  0  0
   -0.4413   -0.0101   -0.5111 C   0  0  0  0  0  0  0  0  0  0  0  0
   -1.5249    0.8468    0.1533 C   0  0  2  0  0  0  0  0  0  0  0  0
   -1.8693    0.2622    1.4825 N   0  0  0  0  0  0  0  0  0  0  0  0
   -2.7154    0.9145   -0.8087 C   0  0  0  0  0  0  0  0  0  0  0  0
   -2.8191    2.0008   -1.4463 O   0  0  0  0  0  0  0  0  0  0  0  0
   -3.4458   -0.1154   -0.8481 O   0  0  0  0  0  0  0  0  0  0  0  0
    3.5152    1.9231    0.5932 H   0  0  0  0  0  0  0  0  0  0  0  0
    0.5073   -1.8008    1.1206 H   0  0  0  0  0  0  0  0  0  0  0  0
   -0.2733    0.3462   -1.5361 H   0  0  0  0  0  0  0  0  0  0  0  0
   -0.7585   -1.0575   -0.6009 H   0  0  0  0  0  0  0  0  0  0  0  0
   -1.1594    1.8575    0.3664 H   0  0  0  0  0  0  0  0  0  0  0  0
   -2.1987   -0.7086    1.3963 H   0  0  0  0  0  0  0  0  0  0  0  0
   -1.0606    0.2636    2.1176 H   0  0  0  0  0  0  0  0  0  0  0  0
   -2.6169    0.8006    1.9401 H   0  0  0  0  0  0  0  0  0  0  0  0
  1  2  1  0
  1  9  1  0
  1 10  1  0
  2  3  2  0
  2  4  1  0
  4  5  1  0
  5  6  2  0
  5  7  1  0
  7  8  1  0
  7  9  2  0
 10 11  1  0
 11 12  1  0
 11 13  1  0
 13 14  1  0
 13 15  2  0
  4 16  1  0
  9 17  1  0
 10 18  1  0
 10 19  1  0
 11 20  1  1
 12 21  1  0
 12 22  1  0
 12 23  1  0
M  CHG  2  12   1  14  -1
M  END
>  <_TriposChargeType>  (4) 
MMFF94_CHARGES

>  <energy_abs>  (4) 
26.491486186006078

>  <SMILE>  (4) 
[H]C1=C(F)C(=O)N([H])C(=O)N1C([H])([H])[C@@]([H])(C(=O)[O-])[N+]([H])([H])[H]

>  <cluster_no>  (4) 
4

>  <pdb_id>  (4) 
2al5

>  <initial_id>  (4) 
31

$$$$
2al5_ligand
     RDKit          3D

 23 23  0  0  0  0  0  0  0  0999 V2000
    0.8542    0.7630    0.4979 N   0  0  0  0  0  0  0  0  0  0  0  0
    1.7763    0.6649   -0.5611 C   0  0  0  0  0  0  0  0  0  0  0  0
    1.5406    1.0067   -1.7221 O   0  0  0  0  0  0  0  0  0  0  0  0
    3.0233    0.1314   -0.2028 N   0  0  0  0  0  0  0  0  0  0  0  0
    3.4145   -0.3009    1.0565 C   0  0  0  0  0  0  0  0  0  0  0  0
    4.5163   -0.7672    1.3249 O   0  0  0  0  0  0  0  0  0  0  0  0
    2.3707   -0.1533    2.0816 C   0  0  0  0  0  0  0  0  0  0  0  0
    2.6881   -0.5541    3.3260 F   0  0  0  0  0  0  0  0  0  0  0  0
    1.1778    0.3527    1.7768 C   0  0  0  0  0  0  0  0  0  0  0  0
   -0.4924    1.3024    0.2594 C   0  0  0  0  0  0  0  0  0  0  0  0
   -1.5711    0.2170    0.1408 C   0  0  2  0  0  0  0  0  0  0  0  0
   -1.2579   -0.6357   -1.0490 N   0  0  0  0  0  0  0  0  0  0  0  0
   -3.0080    0.7641    0.0872 C   0  0  0  0  0  0  0  0  0  0  0  0
   -3.9047   -0.1286    0.1132 O   0  0  0  0  0  0  0  0  0  0  0  0
   -3.1335    2.0179    0.0239 O   0  0  0  0  0  0  0  0  0  0  0  0
    3.7103    0.0479   -0.9468 H   0  0  0  0  0  0  0  0  0  0  0  0
    0.4093    0.4606    2.5341 H   0  0  0  0  0  0  0  0  0  0  0  0
   -0.4750    1.9154   -0.6505 H   0  0  0  0  0  0  0  0  0  0  0  0
   -0.7264    1.9871    1.0852 H   0  0  0  0  0  0  0  0  0  0  0  0
   -1.5120   -0.4614    1.0005 H   0  0  0  0  0  0  0  0  0  0  0  0
   -0.3319   -1.0754   -0.9659 H   0  0  0  0  0  0  0  0  0  0  0  0
   -1.2674   -0.0880   -1.9199 H   0  0  0  0  0  0  0  0  0  0  0  0
   -1.9464   -1.3929   -1.1534 H   0  0  0  0  0  0  0  0  0  0  0  0
  1  2  1  0
  1  9  1  0
  1 10  1  0
  2  3  2  0
  2  4  1  0
  4  5  1  0
  5  6  2  0
  5  7  1  0
  7  8  1  0
  7  9  2  0
 10 11  1  0
 11 12  1  0
 11 13  1  0
 13 14  1  0
 13 15  2  0
  4 16  1  0
  9 17  1  0
 10 18  1  0
 10 19  1  0
 11 20  1  1
 12 21  1  0
 12 22  1  0
 12 23  1  0
M  CHG  2  12   1  14  -1
M  END
>  <_TriposChargeType>  (5) 
MMFF94_CHARGES

>  <energy_abs>  (5) 
26.256817338203216

>  <SMILE>  (5) 
[H]C1=C(F)C(=O)N([H])C(=O)N1C([H])([H])[C@@]([H])(C(=O)[O-])[N+]([H])([H])[H]

>  <cluster_no>  (5) 
5

>  <pdb_id>  (5) 
2al5

>  <initial_id>  (5) 
48

$$$$
2al5_ligand
     RDKit          3D

 23 23  0  0  0  0  0  0  0  0999 V2000
    0.5639    0.9060    0.9893 N   0  0  0  0  0  0  0  0  0  0  0  0
    1.2543    1.1547   -0.2130 C   0  0  0  0  0  0  0  0  0  0  0  0
    0.8418    1.8874   -1.1147 O   0  0  0  0  0  0  0  0  0  0  0  0
    2.4891    0.4987   -0.3260 N   0  0  0  0  0  0  0  0  0  0  0  0
    3.0853   -0.3258    0.6170 C   0  0  0  0  0  0  0  0  0  0  0  0
    4.1730   -0.8748    0.4790 O   0  0  0  0  0  0  0  0  0  0  0  0
    2.2878   -0.4943    1.8400 C   0  0  0  0  0  0  0  0  0  0  0  0
    2.8149   -1.2763    2.7994 F   0  0  0  0  0  0  0  0  0  0  0  0
    1.1064    0.1040    1.9757 C   0  0  0  0  0  0  0  0  0  0  0  0
   -0.7485    1.5264    1.2292 C   0  0  0  0  0  0  0  0  0  0  0  0
   -1.9489    0.6966    0.7499 C   0  0  2  0  0  0  0  0  0  0  0  0
   -2.0164   -0.5809    1.5193 N   0  0  0  0  0  0  0  0  0  0  0  0
   -1.9630    0.5236   -0.7730 C   0  0  0  0  0  0  0  0  0  0  0  0
   -2.2953    1.5580   -1.4196 O   0  0  0  0  0  0  0  0  0  0  0  0
   -1.6500   -0.6231   -1.1993 O   0  0  0  0  0  0  0  0  0  0  0  0
    3.0068    0.6554   -1.1863 H   0  0  0  0  0  0  0  0  0  0  0  0
    0.5240   -0.0230    2.8813 H   0  0  0  0  0  0  0  0  0  0  0  0
   -0.7572    2.4970    0.7176 H   0  0  0  0  0  0  0  0  0  0  0  0
   -0.8433    1.7478    2.3003 H   0  0  0  0  0  0  0  0  0  0  0  0
   -2.8680    1.2286    1.0252 H   0  0  0  0  0  0  0  0  0  0  0  0
   -2.8746   -1.1014    1.2939 H   0  0  0  0  0  0  0  0  0  0  0  0
   -2.0165   -0.4154    2.5345 H   0  0  0  0  0  0  0  0  0  0  0  0
   -1.2223   -1.1965    1.3000 H   0  0  0  0  0  0  0  0  0  0  0  0
  1  2  1  0
  1  9  1  0
  1 10  1  0
  2  3  2  0
  2  4  1  0
  4  5  1  0
  5  6  2  0
  5  7  1  0
  7  8  1  0
  7  9  2  0
 10 11  1  0
 11 12  1  0
 11 13  1  0
 13 14  1  0
 13 15  2  0
  4 16  1  0
  9 17  1  0
 10 18  1  0
 10 19  1  0
 11 20  1  1
 12 21  1  0
 12 22  1  0
 12 23  1  0
M  CHG  2  12   1  14  -1
M  END
>  <_TriposChargeType>  (6) 
MMFF94_CHARGES

>  <energy_abs>  (6) 
26.97159817969318

>  <SMILE>  (6) 
[H]C1=C(F)C(=O)N([H])C(=O)N1C([H])([H])[C@@]([H])(C(=O)[O-])[N+]([H])([H])[H]

>  <cluster_no>  (6) 
6

>  <pdb_id>  (6) 
2al5

>  <initial_id>  (6) 
46

$$$$
2al5_ligand
     RDKit          3D

 23 23  0  0  0  0  0  0  0  0999 V2000
    0.8389    0.7249    0.4533 N   0  0  0  0  0  0  0  0  0  0  0  0
    1.7023    0.5487   -0.6441 C   0  0  0  0  0  0  0  0  0  0  0  0
    1.4079    0.8188   -1.8106 O   0  0  0  0  0  0  0  0  0  0  0  0
    2.9621    0.0248   -0.3183 N   0  0  0  0  0  0  0  0  0  0  0  0
    3.4155   -0.3322    0.9438 C   0  0  0  0  0  0  0  0  0  0  0  0
    4.5263   -0.7930    1.1835 O   0  0  0  0  0  0  0  0  0  0  0  0
    2.4280   -0.1099    2.0103 C   0  0  0  0  0  0  0  0  0  0  0  0
    2.8066   -0.4375    3.2591 F   0  0  0  0  0  0  0  0  0  0  0  0
    1.2249    0.3899    1.7367 C   0  0  0  0  0  0  0  0  0  0  0  0
   -0.5148    1.2600    0.2513 C   0  0  0  0  0  0  0  0  0  0  0  0
   -1.5940    0.1715    0.2370 C   0  0  2  0  0  0  0  0  0  0  0  0
   -1.3918   -0.7079   -0.9514 N   0  0  0  0  0  0  0  0  0  0  0  0
   -2.9539    0.8761    0.2590 C   0  0  0  0  0  0  0  0  0  0  0  0
   -3.3782    1.2826   -0.8591 O   0  0  0  0  0  0  0  0  0  0  0  0
   -3.4854    0.9632    1.4025 O   0  0  0  0  0  0  0  0  0  0  0  0
    3.6082   -0.1131   -1.0903 H   0  0  0  0  0  0  0  0  0  0  0  0
    0.4976    0.5524    2.5243 H   0  0  0  0  0  0  0  0  0  0  0  0
   -0.5366    1.8281   -0.6875 H   0  0  0  0  0  0  0  0  0  0  0  0
   -0.7102    1.9886    1.0496 H   0  0  0  0  0  0  0  0  0  0  0  0
   -1.5053   -0.4897    1.1063 H   0  0  0  0  0  0  0  0  0  0  0  0
   -0.4798   -1.1821   -0.9196 H   0  0  0  0  0  0  0  0  0  0  0  0
   -2.1147   -1.4382   -0.9985 H   0  0  0  0  0  0  0  0  0  0  0  0
   -1.4363   -0.1743   -1.8299 H   0  0  0  0  0  0  0  0  0  0  0  0
  1  2  1  0
  1  9  1  0
  1 10  1  0
  2  3  2  0
  2  4  1  0
  4  5  1  0
  5  6  2  0
  5  7  1  0
  7  8  1  0
  7  9  2  0
 10 11  1  0
 11 12  1  0
 11 13  1  0
 13 14  1  0
 13 15  2  0
  4 16  1  0
  9 17  1  0
 10 18  1  0
 10 19  1  0
 11 20  1  1
 12 21  1  0
 12 22  1  0
 12 23  1  0
M  CHG  2  12   1  14  -1
M  END
>  <_TriposChargeType>  (7) 
MMFF94_CHARGES

>  <energy_abs>  (7) 
26.411822056088774

>  <SMILE>  (7) 
[H]C1=C(F)C(=O)N([H])C(=O)N1C([H])([H])[C@@]([H])(C(=O)[O-])[N+]([H])([H])[H]

>  <cluster_no>  (7) 
7

>  <pdb_id>  (7) 
2al5

>  <initial_id>  (7) 
42

$$$$
2al5_ligand
     RDKit          3D

 23 23  0  0  0  0  0  0  0  0999 V2000
    0.7988    0.8946    0.0611 N   0  0  0  0  0  0  0  0  0  0  0  0
    1.6502    0.1551   -0.7812 C   0  0  0  0  0  0  0  0  0  0  0  0
    1.4696    0.0083   -1.9922 O   0  0  0  0  0  0  0  0  0  0  0  0
    2.7523   -0.4243   -0.1358 N   0  0  0  0  0  0  0  0  0  0  0  0
    3.0634   -0.3448    1.2142 C   0  0  0  0  0  0  0  0  0  0  0  0
    4.0383   -0.8714    1.7394 O   0  0  0  0  0  0  0  0  0  0  0  0
    2.1012    0.4459    1.9962 C   0  0  0  0  0  0  0  0  0  0  0  0
    2.3456    0.5587    3.3144 F   0  0  0  0  0  0  0  0  0  0  0  0
    1.0466    1.0131    1.4145 C   0  0  0  0  0  0  0  0  0  0  0  0
   -0.3998    1.5342   -0.4983 C   0  0  0  0  0  0  0  0  0  0  0  0
   -1.5595    0.5475   -0.6735 C   0  0  2  0  0  0  0  0  0  0  0  0
   -2.6037    1.2192   -1.5087 N   0  0  0  0  0  0  0  0  0  0  0  0
   -2.1073    0.0910    0.6850 C   0  0  0  0  0  0  0  0  0  0  0  0
   -2.6558    0.9900    1.3827 O   0  0  0  0  0  0  0  0  0  0  0  0
   -1.9456   -1.1371    0.9352 O   0  0  0  0  0  0  0  0  0  0  0  0
    3.3862   -0.9636   -0.7187 H   0  0  0  0  0  0  0  0  0  0  0  0
    0.3389    1.5932    1.9957 H   0  0  0  0  0  0  0  0  0  0  0  0
   -0.6854    2.3872    0.1304 H   0  0  0  0  0  0  0  0  0  0  0  0
   -0.1179    1.9482   -1.4752 H   0  0  0  0  0  0  0  0  0  0  0  0
   -1.2427   -0.3235   -1.2584 H   0  0  0  0  0  0  0  0  0  0  0  0
   -2.2359    1.4907   -2.4302 H   0  0  0  0  0  0  0  0  0  0  0  0
   -3.4048    0.5947   -1.6715 H   0  0  0  0  0  0  0  0  0  0  0  0
   -2.9635    2.0687   -1.0530 H   0  0  0  0  0  0  0  0  0  0  0  0
  1  2  1  0
  1  9  1  0
  1 10  1  0
  2  3  2  0
  2  4  1  0
  4  5  1  0
  5  6  2  0
  5  7  1  0
  7  8  1  0
  7  9  2  0
 10 11  1  0
 11 12  1  0
 11 13  1  0
 13 14  1  0
 13 15  2  0
  4 16  1  0
  9 17  1  0
 10 18  1  0
 10 19  1  0
 11 20  1  6
 12 21  1  0
 12 22  1  0
 12 23  1  0
M  CHG  2  12   1  14  -1
M  END
>  <_TriposChargeType>  (8) 
MMFF94_CHARGES

>  <energy_abs>  (8) 
26.40388120643819

>  <SMILE>  (8) 
[H]C1=C(F)C(=O)N([H])C(=O)N1C([H])([H])[C@@]([H])(C(=O)[O-])[N+]([H])([H])[H]

>  <cluster_no>  (8) 
8

>  <pdb_id>  (8) 
2al5

>  <initial_id>  (8) 
39

$$$$
2al5_ligand
     RDKit          3D

 23 23  0  0  0  0  0  0  0  0999 V2000
    0.7607    0.9704    0.1646 N   0  0  0  0  0  0  0  0  0  0  0  0
    1.7019    0.4385   -0.7369 C   0  0  0  0  0  0  0  0  0  0  0  0
    1.5761    0.4621   -1.9634 O   0  0  0  0  0  0  0  0  0  0  0  0
    2.8278   -0.1399   -0.1333 N   0  0  0  0  0  0  0  0  0  0  0  0
    3.0847   -0.2401    1.2267 C   0  0  0  0  0  0  0  0  0  0  0  0
    4.0834   -0.7588    1.7135 O   0  0  0  0  0  0  0  0  0  0  0  0
    2.0308    0.3423    2.0710 C   0  0  0  0  0  0  0  0  0  0  0  0
    2.2193    0.2743    3.4013 F   0  0  0  0  0  0  0  0  0  0  0  0
    0.9510    0.9030    1.5307 C   0  0  0  0  0  0  0  0  0  0  0  0
   -0.4695    1.5873   -0.3498 C   0  0  0  0  0  0  0  0  0  0  0  0
   -1.5317    0.5472   -0.7227 C   0  0  2  0  0  0  0  0  0  0  0  0
   -2.6017    1.2499   -1.4976 N   0  0  0  0  0  0  0  0  0  0  0  0
   -2.0833   -0.1524    0.5264 C   0  0  0  0  0  0  0  0  0  0  0  0
   -1.8233   -1.3868    0.5999 O   0  0  0  0  0  0  0  0  0  0  0  0
   -2.7320    0.5832    1.3226 O   0  0  0  0  0  0  0  0  0  0  0  0
    3.5261   -0.5315   -0.7591 H   0  0  0  0  0  0  0  0  0  0  0  0
    0.1758    1.3290    2.1574 H   0  0  0  0  0  0  0  0  0  0  0  0
   -0.8500    2.3095    0.3839 H   0  0  0  0  0  0  0  0  0  0  0  0
   -0.1919    2.1657   -1.2407 H   0  0  0  0  0  0  0  0  0  0  0  0
   -1.1201   -0.1968   -1.4143 H   0  0  0  0  0  0  0  0  0  0  0  0
   -3.0498    1.9886   -0.9389 H   0  0  0  0  0  0  0  0  0  0  0  0
   -3.3389    0.5940   -1.7881 H   0  0  0  0  0  0  0  0  0  0  0  0
   -2.2279    1.6865   -2.3508 H   0  0  0  0  0  0  0  0  0  0  0  0
  1  2  1  0
  1  9  1  0
  1 10  1  0
  2  3  2  0
  2  4  1  0
  4  5  1  0
  5  6  2  0
  5  7  1  0
  7  8  1  0
  7  9  2  0
 10 11  1  0
 11 12  1  0
 11 13  1  0
 13 14  1  0
 13 15  2  0
  4 16  1  0
  9 17  1  0
 10 18  1  0
 10 19  1  0
 11 20  1  6
 12 21  1  0
 12 22  1  0
 12 23  1  0
M  CHG  2  12   1  14  -1
M  END
>  <_TriposChargeType>  (9) 
MMFF94_CHARGES

>  <energy_abs>  (9) 
26.403881201940745

>  <SMILE>  (9) 
[H]C1=C(F)C(=O)N([H])C(=O)N1C([H])([H])[C@@]([H])(C(=O)[O-])[N+]([H])([H])[H]

>  <cluster_no>  (9) 
9

>  <pdb_id>  (9) 
2al5

>  <initial_id>  (9) 
25

$$$$
2al5_ligand
     RDKit          3D

 23 23  0  0  0  0  0  0  0  0999 V2000
    0.5875   -0.3087   -0.0421 N   0  0  0  0  0  0  0  0  0  0  0  0
    1.6491    0.1484   -0.8474 C   0  0  0  0  0  0  0  0  0  0  0  0
    1.5724    0.3222   -2.0658 O   0  0  0  0  0  0  0  0  0  0  0  0
    2.8414    0.4051   -0.1548 N   0  0  0  0  0  0  0  0  0  0  0  0
    3.0661    0.2489    1.2053 C   0  0  0  0  0  0  0  0  0  0  0  0
    4.1269    0.4890    1.7714 O   0  0  0  0  0  0  0  0  0  0  0  0
    1.8949   -0.2465    1.9427 C   0  0  0  0  0  0  0  0  0  0  0  0
    2.0506   -0.4303    3.2663 F   0  0  0  0  0  0  0  0  0  0  0  0
    0.7470   -0.4977    1.3173 C   0  0  0  0  0  0  0  0  0  0  0  0
   -0.7197   -0.6083   -0.6469 C   0  0  0  0  0  0  0  0  0  0  0  0
   -1.7159    0.5604   -0.6201 C   0  0  2  0  0  0  0  0  0  0  0  0
   -1.1423    1.7207   -1.3642 N   0  0  0  0  0  0  0  0  0  0  0  0
   -2.2023    0.8848    0.7983 C   0  0  0  0  0  0  0  0  0  0  0  0
   -2.8683   -0.0351    1.3543 O   0  0  0  0  0  0  0  0  0  0  0  0
   -1.8931    2.0272    1.2386 O   0  0  0  0  0  0  0  0  0  0  0  0
    3.6235    0.7410   -0.7098 H   0  0  0  0  0  0  0  0  0  0  0  0
   -0.1109   -0.8677    1.8667 H   0  0  0  0  0  0  0  0  0  0  0  0
   -1.1407   -1.4870   -0.1418 H   0  0  0  0  0  0  0  0  0  0  0  0
   -0.5528   -0.9104   -1.6887 H   0  0  0  0  0  0  0  0  0  0  0  0
   -2.6022    0.2731   -1.1993 H   0  0  0  0  0  0  0  0  0  0  0  0
   -1.8278    2.4833   -1.4455 H   0  0  0  0  0  0  0  0  0  0  0  0
   -0.8591    1.4590   -2.3179 H   0  0  0  0  0  0  0  0  0  0  0  0
   -0.3159    2.1027   -0.8857 H   0  0  0  0  0  0  0  0  0  0  0  0
  1  2  1  0
  1  9  1  0
  1 10  1  0
  2  3  2  0
  2  4  1  0
  4  5  1  0
  5  6  2  0
  5  7  1  0
  7  8  1  0
  7  9  2  0
 10 11  1  0
 11 12  1  0
 11 13  1  0
 13 14  1  0
 13 15  2  0
  4 16  1  0
  9 17  1  0
 10 18  1  0
 10 19  1  0
 11 20  1  6
 12 21  1  0
 12 22  1  0
 12 23  1  0
M  CHG  2  12   1  14  -1
M  END
>  <_TriposChargeType>  (10) 
MMFF94_CHARGES

>  <energy_abs>  (10) 
26.602728848823215

>  <SMILE>  (10) 
[H]C1=C(F)C(=O)N([H])C(=O)N1C([H])([H])[C@@]([H])(C(=O)[O-])[N+]([H])([H])[H]

>  <cluster_no>  (10) 
10

>  <pdb_id>  (10) 
2al5

>  <initial_id>  (10) 
41

$$$$
2al5_ligand
     RDKit          3D

 23 23  0  0  0  0  0  0  0  0999 V2000
    0.7743    0.9121    0.0319 N   0  0  0  0  0  0  0  0  0  0  0  0
    1.2269   -0.3452   -0.4135 C   0  0  0  0  0  0  0  0  0  0  0  0
    0.7665   -0.9472   -1.3860 O   0  0  0  0  0  0  0  0  0  0  0  0
    2.2768   -0.8906    0.3403 N   0  0  0  0  0  0  0  0  0  0  0  0
    2.9067   -0.3136    1.4333 C   0  0  0  0  0  0  0  0  0  0  0  0
    3.8283   -0.8244    2.0603 O   0  0  0  0  0  0  0  0  0  0  0  0
    2.3693    1.0062    1.7935 C   0  0  0  0  0  0  0  0  0  0  0  0
    2.9437    1.6245    2.8412 F   0  0  0  0  0  0  0  0  0  0  0  0
    1.3657    1.5481    1.1072 C   0  0  0  0  0  0  0  0  0  0  0  0
   -0.3295    1.5894   -0.6665 C   0  0  0  0  0  0  0  0  0  0  0  0
   -1.7295    1.2595   -0.1278 C   0  0  2  0  0  0  0  0  0  0  0  0
   -1.8533    1.7419    1.2795 N   0  0  0  0  0  0  0  0  0  0  0  0
   -2.0955   -0.2153   -0.3294 C   0  0  0  0  0  0  0  0  0  0  0  0
   -2.0838   -0.9320    0.7102 O   0  0  0  0  0  0  0  0  0  0  0  0
   -2.3723   -0.5332   -1.5214 O   0  0  0  0  0  0  0  0  0  0  0  0
    2.6198   -1.8004    0.0450 H   0  0  0  0  0  0  0  0  0  0  0  0
    0.9752    2.5228    1.3770 H   0  0  0  0  0  0  0  0  0  0  0  0
   -0.2776    1.3068   -1.7255 H   0  0  0  0  0  0  0  0  0  0  0  0
   -0.1554    2.6729   -0.6335 H   0  0  0  0  0  0  0  0  0  0  0  0
   -2.4628    1.8556   -0.6850 H   0  0  0  0  0  0  0  0  0  0  0  0
   -2.8168    1.6320    1.6228 H   0  0  0  0  0  0  0  0  0  0  0  0
   -1.6098    2.7376    1.3644 H   0  0  0  0  0  0  0  0  0  0  0  0
   -1.2428    1.2124    1.9155 H   0  0  0  0  0  0  0  0  0  0  0  0
  1  2  1  0
  1  9  1  0
  1 10  1  0
  2  3  2  0
  2  4  1  0
  4  5  1  0
  5  6  2  0
  5  7  1  0
  7  8  1  0
  7  9  2  0
 10 11  1  0
 11 12  1  0
 11 13  1  0
 13 14  1  0
 13 15  2  0
  4 16  1  0
  9 17  1  0
 10 18  1  0
 10 19  1  0
 11 20  1  6
 12 21  1  0
 12 22  1  0
 12 23  1  0
M  CHG  2  12   1  14  -1
M  END
>  <_TriposChargeType>  (11) 
MMFF94_CHARGES

>  <energy_abs>  (11) 
26.971598180471755

>  <SMILE>  (11) 
[H]C1=C(F)C(=O)N([H])C(=O)N1C([H])([H])[C@@]([H])(C(=O)[O-])[N+]([H])([H])[H]

>  <cluster_no>  (11) 
11

>  <pdb_id>  (11) 
2al5

>  <initial_id>  (11) 
38

$$$$
2al5_ligand
     RDKit          3D

 23 23  0  0  0  0  0  0  0  0999 V2000
    0.7031   -0.2094   -0.1204 N   0  0  0  0  0  0  0  0  0  0  0  0
    1.7380    0.4973   -0.7640 C   0  0  0  0  0  0  0  0  0  0  0  0
    1.7110    0.8455   -1.9467 O   0  0  0  0  0  0  0  0  0  0  0  0
    2.8403    0.7934    0.0512 N   0  0  0  0  0  0  0  0  0  0  0  0
    3.0027    0.4593    1.3879 C   0  0  0  0  0  0  0  0  0  0  0  0
    3.9848    0.7420    2.0654 O   0  0  0  0  0  0  0  0  0  0  0  0
    1.8688   -0.2882    1.9502 C   0  0  0  0  0  0  0  0  0  0  0  0
    1.9691   -0.6524    3.2414 F   0  0  0  0  0  0  0  0  0  0  0  0
    0.8057   -0.5838    1.2056 C   0  0  0  0  0  0  0  0  0  0  0  0
   -0.5121   -0.5756   -0.8644 C   0  0  0  0  0  0  0  0  0  0  0  0
   -1.6593    0.4391   -0.7481 C   0  0  2  0  0  0  0  0  0  0  0  0
   -1.2070    1.7634   -1.2684 N   0  0  0  0  0  0  0  0  0  0  0  0
   -2.2693    0.4767    0.6590 C   0  0  0  0  0  0  0  0  0  0  0  0
   -2.1468    1.5676    1.2832 O   0  0  0  0  0  0  0  0  0  0  0  0
   -2.8346   -0.5948    1.0212 O   0  0  0  0  0  0  0  0  0  0  0  0
    3.6005    1.3073   -0.3854 H   0  0  0  0  0  0  0  0  0  0  0  0
   -0.0245   -1.1398    1.6257 H   0  0  0  0  0  0  0  0  0  0  0  0
   -0.8378   -1.5679   -0.5269 H   0  0  0  0  0  0  0  0  0  0  0  0
   -0.2435   -0.6900   -1.9223 H   0  0  0  0  0  0  0  0  0  0  0  0
   -2.4615    0.1343   -1.4316 H   0  0  0  0  0  0  0  0  0  0  0  0
   -1.9848    2.4362   -1.2928 H   0  0  0  0  0  0  0  0  0  0  0  0
   -0.4711    2.1689   -0.6754 H   0  0  0  0  0  0  0  0  0  0  0  0
   -0.8342    1.6898   -2.2244 H   0  0  0  0  0  0  0  0  0  0  0  0
  1  2  1  0
  1  9  1  0
  1 10  1  0
  2  3  2  0
  2  4  1  0
  4  5  1  0
  5  6  2  0
  5  7  1  0
  7  8  1  0
  7  9  2  0
 10 11  1  0
 11 12  1  0
 11 13  1  0
 13 14  1  0
 13 15  2  0
  4 16  1  0
  9 17  1  0
 10 18  1  0
 10 19  1  0
 11 20  1  6
 12 21  1  0
 12 22  1  0
 12 23  1  0
M  CHG  2  12   1  14  -1
M  END
>  <_TriposChargeType>  (12) 
MMFF94_CHARGES

>  <energy_abs>  (12) 
26.602728859288373

>  <SMILE>  (12) 
[H]C1=C(F)C(=O)N([H])C(=O)N1C([H])([H])[C@@]([H])(C(=O)[O-])[N+]([H])([H])[H]

>  <cluster_no>  (12) 
12

>  <pdb_id>  (12) 
2al5

>  <initial_id>  (12) 
37

$$$$
